  
       XFOIL         Version 6.94
  
 Calculated polar for: PERFIL                                          
  
 1 1 Reynolds number fixed          Mach number fixed         
  
 xtrf =   1.000 (top)        1.000 (bottom)  
 Mach =   0.300     Re =     7.726 e 6     Ncrit =   9.000
  
  alpha     CL        CD       CDp       CM    Top_Xtr Bot_Xtr
 ------- -------- --------- --------- -------- ------- -------
   5.000   0.8027   0.00734   0.00243  -0.0590  0.0422  0.5773
   5.500   0.8647   0.00752   0.00264  -0.0587  0.0419  0.5923
   6.000   0.9268   0.00773   0.00288  -0.0583  0.0410  0.6067
   6.500   0.9880   0.00808   0.00319  -0.0577  0.0319  0.6219
   7.000   1.0476   0.00868   0.00375  -0.0567  0.0207  0.6395
   7.500   1.1076   0.00925   0.00434  -0.0557  0.0147  0.6573
   8.000   1.1677   0.00981   0.00495  -0.0545  0.0115  0.6756
   8.500   1.2276   0.01042   0.00562  -0.0531  0.0093  0.6950
   9.000   1.2878   0.01100   0.00629  -0.0516  0.0083  0.7160
   9.500   1.3469   0.01174   0.00713  -0.0498  0.0068  0.7416
  10.000   1.4063   0.01244   0.00795  -0.0480  0.0063  0.7714
  10.500   1.4644   0.01330   0.00899  -0.0457  0.0055  0.8155
  12.500   1.6763   0.01813   0.01472  -0.0324  0.0039  1.0000
  13.000   1.7173   0.02035   0.01719  -0.0277  0.0036  1.0000
  13.500   1.7464   0.02320   0.02034  -0.0218  0.0035  1.0000
  14.000   1.7515   0.02642   0.02385  -0.0135  0.0034  1.0000
  14.500   1.7399   0.03102   0.02876  -0.0062  0.0033  1.0000
  15.000   1.7155   0.03752   0.03557  -0.0017  0.0033  1.0000
