  
       XFOIL         Version 6.94
  
 Calculated polar for: PERFIL                                          
  
 1 1 Reynolds number fixed          Mach number fixed         
  
 xtrf =   1.000 (top)        1.000 (bottom)  
 Mach =   0.300     Re =     7.726 e 6     Ncrit =   9.000
  
  alpha     CL        CD       CDp       CM    Top_Xtr Bot_Xtr
 ------- -------- --------- --------- -------- ------- -------
   5.000   0.9638   0.00843   0.00343  -0.1143  0.0411  0.5057
   5.500   1.0254   0.00863   0.00363  -0.1139  0.0402  0.5121
   6.000   1.0867   0.00887   0.00384  -0.1132  0.0371  0.5187
   6.500   1.1468   0.00926   0.00420  -0.1122  0.0313  0.5281
   7.000   1.2029   0.01003   0.00490  -0.1105  0.0194  0.5323
   7.500   1.2597   0.01078   0.00567  -0.1087  0.0144  0.5428
   8.000   1.3169   0.01151   0.00644  -0.1068  0.0114  0.5500
   8.500   1.3740   0.01231   0.00729  -0.1047  0.0092  0.5584
   9.000   1.4314   0.01312   0.00818  -0.1025  0.0080  0.5669
   9.500   1.4886   0.01403   0.00918  -0.1000  0.0069  0.5737
  10.000   1.5458   0.01501   0.01028  -0.0975  0.0062  0.5847
  11.000   1.6571   0.01765   0.01323  -0.0914  0.0050  0.6028
  11.500   1.7104   0.01930   0.01507  -0.0878  0.0046  0.6098
  12.000   1.7593   0.02149   0.01752  -0.0837  0.0043  0.6218
  12.500   1.7984   0.02470   0.02106  -0.0786  0.0040  0.6299
  13.000   1.8107   0.03042   0.02725  -0.0715  0.0038  0.6416
  13.500   1.7389   0.04188   0.03925  -0.0583  0.0038  0.6457
  14.000   1.6421   0.05542   0.05321  -0.0478  0.0038  0.6505
  14.500   1.5410   0.07009   0.06819  -0.0433  0.0039  0.6550
  15.000   1.4162   0.09153   0.08987  -0.0500  0.0042  0.6555
